Circuit: * C:\Users\comX\Documents\LTspiceXVII\edtronix\~\components\V0_MTEST_P.asc


Date: Fri May 28 15:47:20 2021
Total elapsed time: 1.916 seconds.

tnom = 27
temp = 27
method = trap
totiter = 240017
traniter = 0
tranpoints = 0
accept = 0
rejected = 0
matrix size = 18
fillins = 4
solver = Normal
Matrix Compiler1: 1.07 KB object code size  2.3/1.9/[1.6]
Matrix Compiler2: 1.40 KB object code size  1.6/1.8/[1.5]

