Circuit: * C:\Users\comX\Documents\LTspiceXVII\edtronix\~tests\V0_LED01.asc

.dc sweep increment has wrong sign -- fixing...
Direct Newton iteration for .op point succeeded.

Date: Sat May 22 15:57:27 2021
Total elapsed time: 1.302 seconds.

tnom = 27
temp = 27
method = trap
totiter = 68135
traniter = 0
tranpoints = 0
accept = 0
rejected = 0
matrix size = 35
fillins = 36
solver = Normal
Matrix Compiler1: 4.15 KB object code size  3.9/3.0/[2.0]
Matrix Compiler2: 3.48 KB object code size  2.2/2.4/[1.6]

