Circuit: * C:\Users\comX\Documents\LTspiceXVII\edtronix\~tests\V0_SW20p.asc

WARNING: Node NC_02 is floating.

WARNING: Less than two connections to node NC_01.  This node is used by D1.
WARNING: Less than two connections to node NC_02.  This node is used by D2.
Direct Newton iteration for .op point succeeded.

Date: Sat May 22 16:35:12 2021
Total elapsed time: 4.608 seconds.

tnom = 27
temp = 27
method = trap
totiter = 300119
traniter = 0
tranpoints = 0
accept = 0
rejected = 0
matrix size = 28
fillins = 16
solver = Normal
Matrix Compiler1: 2.77 KB object code size  3.0/2.5/[1.9]
Matrix Compiler2: 2.48 KB object code size  2.1/2.1/[1.5]

