Circuit: * C:\Users\comX\Documents\LTspiceXVII\edtronix\~tests\V0_SW21p.asc

WARNING: Node NC_02 is floating.

WARNING: Less than two connections to node NC_01.  This node is used by D1.
WARNING: Less than two connections to node NC_02.  This node is used by D2.
.dc sweep increment has wrong sign -- fixing...
Direct Newton iteration failed to find .op point.  (Use ".option noopiter" to skip.)
Starting Gmin stepping
Gmin = 10
Gmin = 1.07374
Gmin = 0.115292
Gmin = 0.0123794
Gmin = 0.00132923
Gmin = 0.000142725
Gmin = 1.5325e-005
Gmin = 1.6455e-006
Gmin = 1.76685e-007
vernier = 0.5
vernier = 0.25
Gmin = 5.44904e-008
vernier = 0.125
vernier = 0.0625
vernier = 0.03125
vernier = 0.015625
Gmin = 5.34433e-008
vernier = 0.0078125
vernier = 0.00390625
vernier = 0.00195313
vernier = 0.000976563
Gmin = 5.33651e-008
vernier = 0.000488281
Gmin = 0
Gmin stepping succeeded in finding the operating point.


Date: Sat May 22 17:24:01 2021
Total elapsed time: 1.481 seconds.

tnom = 27
temp = 27
method = trap
totiter = 61760
traniter = 0
tranpoints = 0
accept = 0
rejected = 0
matrix size = 39
fillins = 30
solver = Normal
Matrix Compiler1: 4.11 KB object code size  4.2/3.2/[2.1]
Matrix Compiler2: 3.63 KB object code size  2.2/2.5/[1.7]

