Circuit: * C:\Users\comX\Documents\LTspiceXVII\edtronix\~\V0_SW24p_ed.asc

WARNING: Node NC_02 is floating.
WARNING: Node N021 is floating.
WARNING: Node NC_04 is floating.

WARNING: Less than two connections to node NC_01.  This node is used by D1.
WARNING: Less than two connections to node NC_02.  This node is used by D2.
WARNING: Less than two connections to node NC_03.  This node is used by D4.
WARNING: Less than two connections to node NC_04.  This node is used by D4.
WARNING: Less than two connections to node N020.  This node is used by R7.
Direct Newton iteration for .op point succeeded.

Date: Fri May 28 17:08:59 2021
Total elapsed time: 3.140 seconds.

tnom = 27
temp = 27
method = trap
totiter = 120133
traniter = 0
tranpoints = 0
accept = 0
rejected = 0
matrix size = 56
fillins = 48
solver = Normal
Matrix Compiler1: 5.83 KB object code size  4.9/4.3/[2.4]
Matrix Compiler2: 5.14 KB object code size  2.7/3.0/[1.9]

