Circuit: * C:\Users\comX\Documents\LTspiceXVII\edtronix\~tests\V0_SW22p.asc

WARNING: Node NC_02 is floating.
WARNING: Node NC_04 is floating.

WARNING: Less than two connections to node NC_01.  This node is used by D1.
WARNING: Less than two connections to node NC_02.  This node is used by D2.
WARNING: Less than two connections to node NC_03.  This node is used by D4.
WARNING: Less than two connections to node NC_04.  This node is used by D4.
.OP point found by inspection.

Date: Wed May 26 02:30:32 2021
Total elapsed time: 11.672 seconds.

tnom = 27
temp = 27
method = modified trap
totiter = 122439
traniter = 122439
tranpoints = 60654
accept = 60500
rejected = 154
matrix size = 41
fillins = 28
solver = Normal
Matrix Compiler1: 4.09 KB object code size  3.8/3.2/[2.1]
Matrix Compiler2: off  [2.2]/2.3/4.3

