Circuit: * C:\Users\comX\Documents\LTspiceXVII\edtronix\~tests\V0_SW01n.asc

.dc sweep increment has wrong sign -- fixing...
Direct Newton iteration failed to find .op point.  (Use ".option noopiter" to skip.)
Starting Gmin stepping
Gmin = 10
Gmin = 1.07374
Gmin = 0.115292
Gmin = 0.0123794
Gmin = 0.00132923
Gmin = 0.000142725
Gmin = 1.5325e-005
Gmin = 1.6455e-006
Gmin = 1.76685e-007
Gmin = 1.89714e-008
Gmin = 2.03704e-009
Gmin = 2.18725e-010
Gmin = 2.34854e-011
Gmin = 2.52173e-012
Gmin = 2.70769e-013
Gmin = 0
Gmin stepping succeeded in finding the operating point.

Direct Newton iteration for .op point succeeded.

Date: Sat May 22 15:59:31 2021
Total elapsed time: 1.890 seconds.

tnom = 27
temp = 27
method = trap
totiter = 140583
traniter = 0
tranpoints = 0
accept = 0
rejected = 0
matrix size = 25
fillins = 20
solver = Normal
Matrix Compiler1: 2.54 KB object code size  3.2/2.4/[1.7]
Matrix Compiler2: 2.33 KB object code size  1.9/2.0/[1.5]

