Circuit: * C:\Users\comX\Documents\LTspiceXVII\edtronix\~tests\V0_SW20p_timer.asc

.OP point found by inspection.

Date: Sat May 22 16:07:58 2021
Total elapsed time: 0.691 seconds.

tnom = 27
temp = 27
method = modified trap
totiter = 120392
traniter = 120392
tranpoints = 60197
accept = 60169
rejected = 28
matrix size = 2
fillins = 0
solver = Normal
Matrix Compiler1:       2 opcodes  1.3/[1.2]/1.3
Matrix Compiler2: 96 bytes object code size  1.2/1.3/[1.2]

