Circuit: * C:\Users\comX\Documents\LTspiceXVII\edtronix\~\V0_SW23p.asc

WARNING: Node NC_02 is floating.
WARNING: Node NC_04 is floating.

WARNING: Less than two connections to node NC_01.  This node is used by D1.
WARNING: Less than two connections to node NC_02.  This node is used by D2.
WARNING: Less than two connections to node NC_03.  This node is used by D4.
WARNING: Less than two connections to node NC_04.  This node is used by D4.
.dc sweep increment has wrong sign -- fixing...
Direct Newton iteration failed to find .op point.  (Use ".option noopiter" to skip.)
Starting Gmin stepping
Gmin = 10
Gmin = 1.07374
Gmin = 0.115292
Gmin = 0.0123794
Gmin = 0.00132923
Gmin = 0.000142725
Gmin = 1.5325e-005
Gmin = 1.6455e-006
Gmin = 1.76685e-007
vernier = 0.5
Gmin = 3.29364e-008
vernier = 0.25
vernier = 0.125
vernier = 0.0625
vernier = 0.03125
vernier = 0.015625
Gmin = 3.64834e-008
vernier = 0.0078125
vernier = 0.00390625
vernier = 0.00195313
vernier = 0.000976563
vernier = 0.000488281
Gmin = 3.6306e-008
Gmin = 0
Gmin stepping succeeded in finding the operating point.


Date: Fri May 28 12:58:10 2021
Total elapsed time: 2.875 seconds.

tnom = 27
temp = 27
method = trap
totiter = 121707
traniter = 0
tranpoints = 0
accept = 0
rejected = 0
matrix size = 51
fillins = 42
solver = Normal
Matrix Compiler1: 5.13 KB object code size  4.9/3.8/[2.4]
Matrix Compiler2: 4.66 KB object code size  2.6/3.0/[2.0]

