Circuit: * C:\Users\comX\Documents\LTspiceXVII\edtronix\~tests\~templates\V0_MTEST.asc

WARNING: Less than two connections to node VN.  This node is used by R2.
WARNING: Less than two connections to node N005.  This node is used by R4.

Date: Mon May 24 13:19:43 2021
Total elapsed time: 1.413 seconds.

tnom = 27
temp = 27
method = trap
totiter = 240006
traniter = 0
tranpoints = 0
accept = 0
rejected = 0
matrix size = 14
fillins = 0
solver = Normal
Matrix Compiler1: 662 bytes object code size  1.9/1.7/[1.6]
Matrix Compiler2: 958 bytes object code size  1.5/1.8/[1.4]

